IEEE-123.glm
// $Id: IEEE123-Feb27.glm 1182 2009-2-27 d3x289 $
//	Copyright (C) 2009 Battelle Memorial Institute

#set profiler=1
#set pauseatexit=1
//#set iteration_limit=100000;
//#include "C:\Documents and Settings\d3x289\Desktop\GridLAB-D\trunk\core\rt\msvc_debugger.glm"

//base case
//clock {
//	timestamp '2000-01-01 0:00:00';
//	timezone EST+5EDT;
//}

//Base, never used yet
//module powerflow{
//	solver_method GS;
//	acceleration_factor 1.4;
//	default_maximum_voltage_error 1e-9;
//};

//the one that usually works
clock {
     timezone PST+8PDT;
     starttime '2009-08-08 04:30:00';
     stoptime '2009-08-09 04:30:00';
}
module powerflow {
     solver_method NR;
     NR_iteration_limit 50;
};

module tape;
module climate;
module residential{
	implicit_enduses NONE;
//    ANSI_voltage_check FALSE;
};

module generators;
#include "../../Shared Model Files/appliance_schedules.glm";


//base case
//object climate {
//	name "Spokane WA";
//	tmyfile "../../Shared Model Files/WA-Spokane-24157.tmy2";
//	interpolate LINEAR;
//}

//the one that usually works
object climate {
	name "Spokane WA";
	tmyfile "../../Shared Model Files/WA-Spokane-24157.tmy2";
	interpolate LINEAR;
}

//Configurations
//Phase Conductor for 1 thru 8: 336,400 26/7 ACSR
object overhead_line_conductor:10001 {
	geometric_mean_radius 0.0244  ;
	resistance 0.30600;
}

//Phase Conductor for 9 thru 11: 1/0 ACSR
object overhead_line_conductor:10009 {
	geometric_mean_radius 0.004460  ;
	resistance 1.12000;
}	

//Phase Conductor for neutral: 4/0 6/1 ACSR
object overhead_line_conductor:10002 {
	geometric_mean_radius 0.008140  ;
	resistance 0.59200;
}

// Phase Conductor for 12: 1/0 AA,TS
object underground_line_conductor:10003 { 
	 outer_diameter 1.060000;
	 conductor_gmr 0.011100;
	 conductor_diameter 0.368000;
	 conductor_resistance 0.970000;
	 neutral_gmr 0.011100;
	 neutral_resistance 0.970000;
	 neutral_diameter 0.0640837;
	 neutral_strands 6.000000;
	 shield_gmr 0.000000;
	 shield_resistance 0.000000;
}

// Overhead line configurations
// ABCN
object line_spacing:5001 {
	distance_AB 2.5;
	distance_AC 7.0;
	distance_BC 4.5;
	distance_AN 5.656854;
	distance_BN 4.272002;
	distance_CN 5.0;
}

// CABN
object line_spacing:5002 {
	distance_AB 4.5;
	distance_AC 2.5;
	distance_BC 7.0;
	distance_AN 5.0;
	distance_BN 4.272002;
	distance_CN 5.656854;
}

// BCAN
object line_spacing:5003 {
	distance_AB 7.0;
	distance_AC 4.5;
	distance_BC 2.5;
	distance_AN 5.0;
	distance_BN 5.656854;
	distance_CN 4.272002;
}

// CBAN
object line_spacing:5004 {
	distance_AB 4.5;
	distance_AC 7.0;
	distance_BC 2.5;
	distance_AN 5.0;
	distance_BN 4.272002;
	distance_CN 5.656854;
}

// BACN
object line_spacing:5005 {
	distance_AB 2.5;
	distance_AC 4.5;
	distance_BC 7.0;
	distance_BN 5.656854;
	distance_AN 4.272002;
	distance_CN 5.0;
}

// ACBN
object line_spacing:5006 {
	distance_AB 7.0;
	distance_AC 2.5;
	distance_BC 4.5;
	distance_AN 5.656854;
	distance_CN 4.272002;
	distance_BN 5.0;
}

//ACN
object line_spacing:5007 {
	distance_AB 0.0;
	distance_AC 7.0;
	distance_BC 0.0;
	distance_AN 5.656854;
	distance_BN 0.0;
	distance_CN 5.0;
}

//ABN
object line_spacing:5008 {
	distance_AB 7.0;
	distance_AC 0.0;
	distance_BC 0.0;
	distance_AN 5.656854;
	distance_BN 5.0;
	distance_CN 0.0;
}

//AN
object line_spacing:5009 {
	distance_AB 0.0;
	distance_AC 0.0;
	distance_BC 0.0;
	distance_AN 5.0;
	distance_BN 0.0;
	distance_CN 0.0;
}

//BN
object line_spacing:50010 {
	distance_AB 0.0;
	distance_AC 0.0;
	distance_BC 0.0;
	distance_AN 0.0;
	distance_BN 5.0;
	distance_CN 0.0;
}

//CN
object line_spacing:50011 {
	distance_AB 0.0;
	distance_AC 0.0;
	distance_BC 0.0;
	distance_AN 0.0;
	distance_BN 0.0;
	distance_CN 5.0;
}

//ABC
object line_spacing:50012 {
	distance_AB 0.5;
	distance_AC 1.0;
	distance_BC 0.5;
	distance_AN 0.0;
	distance_BN 0.0;
	distance_CN 0.0;
}


object line_configuration:1001 {
	conductor_A overhead_line_conductor:10001;
	conductor_B overhead_line_conductor:10001;
	conductor_C overhead_line_conductor:10001;
	conductor_N overhead_line_conductor:10002;
	spacing line_spacing:5001;
}

object line_configuration:1002 {
	conductor_A overhead_line_conductor:10001;
	conductor_B overhead_line_conductor:10001;
	conductor_C overhead_line_conductor:10001;
	conductor_N overhead_line_conductor:10002;
	spacing line_spacing:5002;
}

object line_configuration:1003 {
	conductor_A overhead_line_conductor:10001;
	conductor_B overhead_line_conductor:10001;
	conductor_C overhead_line_conductor:10001;
	conductor_N overhead_line_conductor:10002;
	spacing line_spacing:5003;
}

object line_configuration:1004 {
	conductor_A overhead_line_conductor:10001;
	conductor_B overhead_line_conductor:10001;
	conductor_C overhead_line_conductor:10001;
	conductor_N overhead_line_conductor:10002;
	spacing line_spacing:5004;
}

object line_configuration:1005 {
	conductor_A overhead_line_conductor:10001;
	conductor_B overhead_line_conductor:10001;
	conductor_C overhead_line_conductor:10001;
	conductor_N overhead_line_conductor:10002;
	spacing line_spacing:5005;
}

object line_configuration:1006 {
	conductor_A overhead_line_conductor:10001;
	conductor_B overhead_line_conductor:10001;
	conductor_C overhead_line_conductor:10001;
	conductor_N overhead_line_conductor:10002;
	spacing line_spacing:5006;
}

object line_configuration:1007 {
	conductor_A overhead_line_conductor:10001;
	conductor_C overhead_line_conductor:10001;
	conductor_N overhead_line_conductor:10002;
	spacing line_spacing:5007;
}

object line_configuration:1008 {
	conductor_A overhead_line_conductor:10001;
	conductor_B overhead_line_conductor:10001;
	conductor_N overhead_line_conductor:10002;
	spacing line_spacing:5008;
}

object line_configuration:1009 {
	conductor_A overhead_line_conductor:10009;
	conductor_N overhead_line_conductor:10009;
	spacing line_spacing:5009;
}

object line_configuration:10010 {
	conductor_B overhead_line_conductor:10009;
	conductor_N overhead_line_conductor:10009;
	spacing line_spacing:50010;
}

object line_configuration:10011 {
	conductor_C overhead_line_conductor:10009;
	conductor_N overhead_line_conductor:10009;
	spacing line_spacing:50011;
}

object line_configuration:10012 {
	 conductor_A underground_line_conductor:10003;
	 conductor_B underground_line_conductor:10003;
	 conductor_C underground_line_conductor:10003;
	 spacing line_spacing:50012;
}
//Regulator config
object regulator_configuration:1501490 {
	connect_type 1;
	band_center 120.000;
	band_width 2.0;
	time_delay 30.0;
	raise_taps 16;
	lower_taps 16;
	current_transducer_ratio 700;
	power_transducer_ratio 20;
	compensator_r_setting_A 3.0;
	compensator_x_setting_A 7.5;
	compensator_r_setting_B 3.0;
	compensator_x_setting_B 7.5;
	compensator_r_setting_C 3.0;
	compensator_x_setting_C 7.5;
	CT_phase "ABC";
	PT_phase "ABC";
	regulation 0.10;
	Control MANUAL;
	Type A;
	tap_pos_A 7;
	tap_pos_B 7;
	tap_pos_C 7;
}
object regulator_configuration:16067010 {
	connect_type 1;
	band_center 124.000;
	band_width 2.0;
	time_delay 30.0;
	raise_taps 16;
	lower_taps 16;
	current_transducer_ratio 300;
	power_transducer_ratio 20;
	compensator_r_setting_A 0.6;
	compensator_x_setting_A 1.3;
	compensator_r_setting_B 1.4;
	compensator_x_setting_B 2.6;
	compensator_r_setting_C 0.2;
	compensator_x_setting_C 1.4;
	CT_phase "ABC";
	PT_phase "ABC";
	regulation 0.10;
	Control MANUAL;
	Type A;
	tap_pos_A 8;
	tap_pos_B 1;
	tap_pos_C 5;
}
object regulator_configuration:914010 {
	connect_type 1;
	band_center 120.000;
	band_width 2.0;
	time_delay 30.0;
	raise_taps 16;
	lower_taps 16;
	current_transducer_ratio 50;
	power_transducer_ratio 20;
	compensator_r_setting_A 0.4;
	compensator_x_setting_A 0.4;
	CT_phase "A";
	PT_phase "A";
	regulation 0.10;
	Control MANUAL;
	Type A;
	tap_pos_A -1;
}
object regulator_configuration:2526010 {
	connect_type 1;
	band_center 120.000;
	band_width 1.0;
	time_delay 30.0;
	raise_taps 16;
	lower_taps 16;
	current_transducer_ratio 50;
	power_transducer_ratio 20;
	compensator_r_setting_A 0.4;
	compensator_x_setting_A 0.4;
	compensator_r_setting_C 0.4;
	compensator_x_setting_C 0.4;
	CT_phase "AC";
	PT_phase "AC";
	regulation 0.10;
	Control MANUAL;
	Type A;
	tap_pos_A 0;
	tap_pos_C -1;
}
  
// Transformer
object transformer_configuration:400 {
	connect_type DELTA_DELTA;
  	install_type PADMOUNT;
  	power_rating 150;
  	primary_voltage 4160;
  	secondary_voltage 480;
  	resistance 0.0127;
  	reactance 0.0272;
}
object transformer_configuration {
     name house_transformer;
     connect_type SINGLE_PHASE_CENTER_TAPPED;
     install_type PADMOUNT;
     primary_voltage 7200 V;
     secondary_voltage 124 V;
     power_rating 250;
     powerA_rating 250;
     impedance 0.015+0.0675j;
}
object transformer_configuration {
     name houseB_transformer;
     connect_type SINGLE_PHASE_CENTER_TAPPED;
     install_type PADMOUNT;
     primary_voltage 7200 V;
     secondary_voltage 124 V;
     power_rating 250;
     powerB_rating 250;
     impedance 0.015+0.0675j;
}
object transformer_configuration {
     name houseC_transformer;
     connect_type SINGLE_PHASE_CENTER_TAPPED;
     install_type PADMOUNT;
     primary_voltage 7200 V;
     secondary_voltage 124 V;
     power_rating 250;
     powerC_rating 250;
     impedance 0.015+0.0675j;
}
object triplex_line_configuration {
      name triplex_line_config;
      conductor_1 Name_1_0_AA_triplex;
      conductor_2 Name_1_0_AA_triplex;
      conductor_N Name_1_0_AA_triplex;
      insulation_thickness 0.1;
      diameter 0.4;
}
object triplex_line_conductor {
      name Name_1_0_AA_triplex;
      resistance 0.57;
      geometric_mean_radius 0.0111;
}
  
//////////////////////////////NETWORK/////////////////////////////


//Feeder 
object node {
     phases "ABCN";
     name feeder_150;
     bustype SWING;
//     voltage_A 2401.7771;
//     voltage_B -1200.8886-2080.000j;
//     voltage_C -1200.8886+2080.000j;
     nominal_voltage 2401.7771;
}
//First Regulator
object regulator {
    //name regulator_1501491;
	 phases "ABC";
	 from feeder_150;
	 to meter_1491;
	 configuration regulator_configuration:1501490;
}
//Substation meter 1 *before switch*
object meter {
     phases "ABCN";
     name meter_1491;
//     voltage_A 2401.7771;
//     voltage_B -1200.8886-2080.000j;
//     voltage_C -1200.8886+2080.000j;
     nominal_voltage 2401.7771;
}
//Switch connecting feeder head to network
object switch {
     phases "ABCN";
//   name switch1491-149;
     from meter_1491;
     to meter_149;
     status CLOSED;
}
//Substation meter 2 *after switch*
object meter {
     phases "ABCN";
     name meter_149;
//     voltage_A 2401.7771;
//     voltage_B -1200.8886-2080.000j;
//     voltage_C -1200.8886+2080.000j;
     nominal_voltage 2401.7771;
}

object overhead_line:  {
     phases "ABCN";
     name l149-1;
     from meter_149;
     to meter_1;
     length 400;
     configuration line_configuration:1001;
}
//-------------------------------------------------NODE 1 with House load 
object meter {
     name meter_1;
     phases "ABCN";
//     voltage_A 2401.7771;
//     voltage_B -1200.8886-2080.000j;
//     voltage_C -1200.8886+2080.000j;
//   constant_power_A 40000+20000j;
     nominal_voltage 2401.7771;
}

object transformer {
     name house_1_trans;
     phases AS;
     from meter_1;
     to house_1_node;
     configuration house_transformer;
}
object triplex_node {     
     name house_1_node;
     phases AS;
     nominal_voltage 124.00;     
} 
object triplex_line {
	 name tl1;
     from house_1_node;
     to house_1_meter;
     phases AS;
     length 10;
     configuration triplex_line_config;
}
object triplex_meter {     
     name house_1_meter;
     phases AS;
     nominal_voltage 124.00;     
} 
object house {
     name house_1;
     parent house_1_meter;
	 Rroof 40;
	 window_wall_ratio 0.5;
	 over_sizing_factor 1.3;
	 cooling_setpoint 73;
	 thermostat_deadband 2.5;
	 air_temperature 72;
	 object ZIPload {
          schedule_skew 35;
          base_power LIGHTS*1.9408;
          power_fraction 0.600000;
          impedance_fraction 0.400000;
          current_fraction 0.000000;
          power_pf -0.780;
          current_pf 0.420;
          impedance_pf -0.880;
          heat_fraction 0.88;
     };
     object ZIPload {
          schedule_skew 35;
          base_power CLOTHESWASHER*0.8239;
          power_fraction 1.000000;
          impedance_fraction 0.000000;
          current_fraction 0.000000;
          power_pf 0.970;
          current_pf 0.970;
          impedance_pf 0.970;
          heat_fraction 0.81;
     };
     object ZIPload {
          schedule_skew 35;
          base_power REFRIGERATOR*0.4240;
          power_fraction 1.000000;
          impedance_fraction 0.000000;
          current_fraction 0.000000;
          power_pf 0.970;
          current_pf 0.970;
          impedance_pf 0.970;
          heat_fraction 0.93;
     };
     object ZIPload {
          schedule_skew 35;
          base_power DRYER*0.8937;
          power_fraction 0.100000;
          impedance_fraction 0.800000;
          current_fraction 0.100000;
          power_pf 0.900;
          current_pf 0.900;
          impedance_pf 1.000;
          heat_fraction 0.93;
     };
     object ZIPload {
          schedule_skew 35;
          base_power FREEZER*0.3775;
          power_fraction 1.000000;
          impedance_fraction 0.000000;
          current_fraction 0.000000;
          power_pf 0.970;
          current_pf 0.970;
          impedance_pf 0.970;
          heat_fraction 0.65;
     };
     object ZIPload {
          schedule_skew 35;
          base_power RANGE*0.7730;
          power_fraction 0.000000;
          impedance_fraction 1.000000;
          current_fraction 0.000000;
          power_pf 0.000;
          current_pf 0.000;
          impedance_pf 1.000;
          heat_fraction 0.79;
     };
     object ZIPload {
          schedule_skew 35;
          base_power MICROWAVE*0.3543;
          power_fraction 1.000000;
          impedance_fraction 0.000000;
          current_fraction 0.000000;
          power_pf 0.970;
          current_pf 0.970;
          impedance_pf 0.970;
          heat_fraction 0.80;
     };
}



object overhead_line:  {
     phases "BN";
     name l1-2;
     from meter_1;
     to meter_2;
     length 175;
     configuration line_configuration:10010;
}
//------------------------------------------------NODE 2 with House load 
object meter {
     name meter_2;
     phases "BN";
     voltage_A 2401.7771;
     voltage_B -1200.8886-2080.000j;
     voltage_C -1200.8886+2080.000j;
//   constant_power_B 20000+10000j;
     nominal_voltage 2401.7771;
}

object transformer {
     name house_2_trans;
     phases BS;
     from meter_2;
     to house_2_node;
     configuration houseB_transformer;
}
object triplex_node {     
     name house_2_node;
     phases BS;
     nominal_voltage 124.00;     
} 
object triplex_line {
	 name tl2;
     from house_2_node;
     to house_2_meter;
     phases BS;
     length 10;
     configuration triplex_line_config;
}
object triplex_meter {     
     name house_2_meter;
     phases BS;
     nominal_voltage 124.00;     
} 
object house {
     name house_2;
     parent house_2_meter;
	 Rroof 40;
	 window_wall_ratio 0.5;
	 over_sizing_factor 1.3;
	 cooling_setpoint 73;
	 thermostat_deadband 2.5;
	 air_temperature 72;
	 object ZIPload {
          schedule_skew 35;
          base_power LIGHTS*1.9408;
          power_fraction 0.600000;
          impedance_fraction 0.400000;
          current_fraction 0.000000;
          power_pf -0.780;
          current_pf 0.420;
          impedance_pf -0.880;
          heat_fraction 0.88;
     };
     object ZIPload {
          schedule_skew 35;
          base_power CLOTHESWASHER*0.8239;
          power_fraction 1.000000;
          impedance_fraction 0.000000;
          current_fraction 0.000000;
          power_pf 0.970;
          current_pf 0.970;
          impedance_pf 0.970;
          heat_fraction 0.81;
     };
     object ZIPload {
          schedule_skew 35;
          base_power REFRIGERATOR*0.4240;
          power_fraction 1.000000;
          impedance_fraction 0.000000;
          current_fraction 0.000000;
          power_pf 0.970;
          current_pf 0.970;
          impedance_pf 0.970;
          heat_fraction 0.93;
     };
     object ZIPload {
          schedule_skew 35;
          base_power DRYER*0.8937;
          power_fraction 0.100000;
          impedance_fraction 0.800000;
          current_fraction 0.100000;
          power_pf 0.900;
          current_pf 0.900;
          impedance_pf 1.000;
          heat_fraction 0.93;
     };
     object ZIPload {
          schedule_skew 35;
          base_power FREEZER*0.3775;
          power_fraction 1.000000;
          impedance_fraction 0.000000;
          current_fraction 0.000000;
          power_pf 0.970;
          current_pf 0.970;
          impedance_pf 0.970;
          heat_fraction 0.65;
     };
     object ZIPload {
          schedule_skew 35;
          base_power RANGE*0.7730;
          power_fraction 0.000000;
          impedance_fraction 1.000000;
          current_fraction 0.000000;
          power_pf 0.000;
          current_pf 0.000;
          impedance_pf 1.000;
          heat_fraction 0.79;
     };
     object ZIPload {
          schedule_skew 35;
          base_power MICROWAVE*0.3543;
          power_fraction 1.000000;
          impedance_fraction 0.000000;
          current_fraction 0.000000;
          power_pf 0.970;
          current_pf 0.970;
          impedance_pf 0.970;
          heat_fraction 0.80;
     };
}


object overhead_line:  {
     phases "CN";
     name l1-3;
     from meter_1;
     to meter_3;
     length 250;
     configuration line_configuration:10011;
}
//---------------------------------------------------------NODE 3 
object meter {
     phases "CN";
     name meter_3;
     voltage_A 2401.7771;
     voltage_B -1200.8886-2080.000j;
     voltage_C -1200.8886+2080.000j;
     nominal_voltage 2401.7771;
}

object overhead_line:  {
     phases "CN";
     name l3-4;
     from meter_3;
     to meter_4;
     length 200;
     configuration line_configuration:10011;
}
 //-----------------------------------------------------NODE 4 with House load 
 object meter {
     name meter_4;
     phases "CN";
     voltage_A 2401.7771;
     voltage_B -1200.8886-2080.000j;
     voltage_C -1200.8886+2080.000j;
//   constant_power_C 40000+20000j;
     nominal_voltage 2401.7771;
}

object transformer {
     name house_4_trans;
     phases CS;
     from meter_4;
     to house_4_node;
     configuration houseC_transformer;
}
object triplex_node {     
     name house_4_node;
     phases CS;
     nominal_voltage 124.00;     
} 
object triplex_line {
	 name tl4;
     from house_4_node;
     to house_4_meter;
     phases CS;
     length 10;
     configuration triplex_line_config;
}
object triplex_meter {     
     name house_4_meter;
     phases CS;
     nominal_voltage 124.00;     
} 
object house {
     name house_4;
     parent house_4_meter;
	 Rroof 40;
	 window_wall_ratio 0.5;
	 over_sizing_factor 1.3;
	 cooling_setpoint 73;
	 thermostat_deadband 2.5;
	 air_temperature 72;
	 object ZIPload {
          schedule_skew 35;
          base_power LIGHTS*1.9408;
          power_fraction 0.600000;
          impedance_fraction 0.400000;
          current_fraction 0.000000;
          power_pf -0.780;
          current_pf 0.420;
          impedance_pf -0.880;
          heat_fraction 0.88;
     };
     object ZIPload {
          schedule_skew 35;
          base_power CLOTHESWASHER*0.8239;
          power_fraction 1.000000;
          impedance_fraction 0.000000;
          current_fraction 0.000000;
          power_pf 0.970;
          current_pf 0.970;
          impedance_pf 0.970;
          heat_fraction 0.81;
     };
     object ZIPload {
          schedule_skew 35;
          base_power REFRIGERATOR*0.4240;
          power_fraction 1.000000;
          impedance_fraction 0.000000;
          current_fraction 0.000000;
          power_pf 0.970;
          current_pf 0.970;
          impedance_pf 0.970;
          heat_fraction 0.93;
     };
     object ZIPload {
          schedule_skew 35;
          base_power DRYER*0.8937;
          power_fraction 0.100000;
          impedance_fraction 0.800000;
          current_fraction 0.100000;
          power_pf 0.900;
          current_pf 0.900;
          impedance_pf 1.000;
          heat_fraction 0.93;
     };
     object ZIPload {
          schedule_skew 35;
          base_power FREEZER*0.3775;
          power_fraction 1.000000;
          impedance_fraction 0.000000;
          current_fraction 0.000000;
          power_pf 0.970;
          current_pf 0.970;
          impedance_pf 0.970;
          heat_fraction 0.65;
     };
     object ZIPload {
          schedule_skew 35;
          base_power RANGE*0.7730;
          power_fraction 0.000000;
          impedance_fraction 1.000000;
          current_fraction 0.000000;
          power_pf 0.000;
          current_pf 0.000;
          impedance_pf 1.000;
          heat_fraction 0.79;
     };
     object ZIPload {
          schedule_skew 35;
          base_power MICROWAVE*0.3543;
          power_fraction 1.000000;
          impedance_fraction 0.000000;
          current_fraction 0.000000;
          power_pf 0.970;
          current_pf 0.970;
          impedance_pf 0.970;
          heat_fraction 0.80;
     };
}





object overhead_line:  {
     phases "CN";
     name l3-5;
     from meter_3;
     to meter_5;
     length 325;
     configuration line_configuration:10011;
}
 //-------------------------------------------------------NODE 5 with House load
object meter {
     name meter_5;
     phases "CN";
     voltage_A 2401.7771;
     voltage_B -1200.8886-2080.000j;
     voltage_C -1200.8886+2080.000j;
//   constant_current_C -0.55781+9.2933j;
     nominal_voltage 2401.7771;
}

object transformer {
     name house_5_trans;
     phases CS;
     from meter_5;
     to house_5_node;
     configuration houseC_transformer;
}
object triplex_node {     
     name house_5_node;
     phases CS;
     nominal_voltage 124.00;     
} 
object triplex_line {
	 name tl5;
     from house_5_node;
     to house_5_meter;
     phases CS;
     length 10;
     configuration triplex_line_config;
}
object triplex_meter {     
     name house_5_meter;
     phases CS;
     nominal_voltage 124.00;     
} 
object house {
     name house_5;
     parent house_5_meter;
	 Rroof 40;
	 window_wall_ratio 0.5;
	 over_sizing_factor 1.3;
	 cooling_setpoint 73;
	 thermostat_deadband 2.5;
	 air_temperature 72;
	 object ZIPload {
          schedule_skew 35;
          base_power LIGHTS*1.9408;
          power_fraction 0.600000;
          impedance_fraction 0.400000;
          current_fraction 0.000000;
          power_pf -0.780;
          current_pf 0.420;
          impedance_pf -0.880;
          heat_fraction 0.88;
     };
     object ZIPload {
          schedule_skew 35;
          base_power CLOTHESWASHER*0.8239;
          power_fraction 1.000000;
          impedance_fraction 0.000000;
          current_fraction 0.000000;
          power_pf 0.970;
          current_pf 0.970;
          impedance_pf 0.970;
          heat_fraction 0.81;
     };
     object ZIPload {
          schedule_skew 35;
          base_power REFRIGERATOR*0.4240;
          power_fraction 1.000000;
          impedance_fraction 0.000000;
          current_fraction 0.000000;
          power_pf 0.970;
          current_pf 0.970;
          impedance_pf 0.970;
          heat_fraction 0.93;
     };
     object ZIPload {
          schedule_skew 35;
          base_power DRYER*0.8937;
          power_fraction 0.100000;
          impedance_fraction 0.800000;
          current_fraction 0.100000;
          power_pf 0.900;
          current_pf 0.900;
          impedance_pf 1.000;
          heat_fraction 0.93;
     };
     object ZIPload {
          schedule_skew 35;
          base_power FREEZER*0.3775;
          power_fraction 1.000000;
          impedance_fraction 0.000000;
          current_fraction 0.000000;
          power_pf 0.970;
          current_pf 0.970;
          impedance_pf 0.970;
          heat_fraction 0.65;
     };
     object ZIPload {
          schedule_skew 35;
          base_power RANGE*0.7730;
          power_fraction 0.000000;
          impedance_fraction 1.000000;
          current_fraction 0.000000;
          power_pf 0.000;
          current_pf 0.000;
          impedance_pf 1.000;
          heat_fraction 0.79;
     };
     object ZIPload {
          schedule_skew 35;
          base_power MICROWAVE*0.3543;
          power_fraction 1.000000;
          impedance_fraction 0.000000;
          current_fraction 0.000000;
          power_pf 0.970;
          current_pf 0.970;
          impedance_pf 0.970;
          heat_fraction 0.80;
     };
}



object overhead_line:  {
     phases "CN";
     name l5-6;
     from meter_5;
     to meter_6;
     length 250;
     configuration line_configuration:10011;
}  
//---------------------------------------------------NODE 6 with House load
object meter {
     name meter_6;
     phases "CN";
     voltage_A 2401.7771;
     voltage_B -1200.8886-2080.000j;
     voltage_C -1200.8886+2080.000j;
//   constant_impedance_C 115.3707+57.6853j;
     nominal_voltage 2401.7771;
}

object transformer {
     name house_6_trans;
     phases CS;
     from meter_6;
     to house_6_node;
     configuration houseC_transformer;
}
object triplex_node {     
     name house_6_node;
     phases CS;
     nominal_voltage 124.00;     
} 
object triplex_line {
	 name tl6;
     from house_6_node;
     to house_6_meter;
     phases CS;
     length 10;
     configuration triplex_line_config;
}
object triplex_meter {     
     name house_6_meter;
     phases CS;
     nominal_voltage 124.00;     
} 
object house {
     name house_6;
     parent house_6_meter;
	 Rroof 40;
	 window_wall_ratio 0.5;
	 over_sizing_factor 1.3;
	 cooling_setpoint 73;
	 thermostat_deadband 2.5;
	 air_temperature 72;
	 object ZIPload {
          schedule_skew 35;
          base_power LIGHTS*1.9408;
          power_fraction 0.600000;
          impedance_fraction 0.400000;
          current_fraction 0.000000;
          power_pf -0.780;
          current_pf 0.420;
          impedance_pf -0.880;
          heat_fraction 0.88;
     };
     object ZIPload {
          schedule_skew 35;
          base_power CLOTHESWASHER*0.8239;
          power_fraction 1.000000;
          impedance_fraction 0.000000;
          current_fraction 0.000000;
          power_pf 0.970;
          current_pf 0.970;
          impedance_pf 0.970;
          heat_fraction 0.81;
     };
     object ZIPload {
          schedule_skew 35;
          base_power REFRIGERATOR*0.4240;
          power_fraction 1.000000;
          impedance_fraction 0.000000;
          current_fraction 0.000000;
          power_pf 0.970;
          current_pf 0.970;
          impedance_pf 0.970;
          heat_fraction 0.93;
     };
     object ZIPload {
          schedule_skew 35;
          base_power DRYER*0.8937;
          power_fraction 0.100000;
          impedance_fraction 0.800000;
          current_fraction 0.100000;
          power_pf 0.900;
          current_pf 0.900;
          impedance_pf 1.000;
          heat_fraction 0.93;
     };
     object ZIPload {
          schedule_skew 35;
          base_power FREEZER*0.3775;
          power_fraction 1.000000;
          impedance_fraction 0.000000;
          current_fraction 0.000000;
          power_pf 0.970;
          current_pf 0.970;
          impedance_pf 0.970;
          heat_fraction 0.65;
     };
     object ZIPload {
          schedule_skew 35;
          base_power RANGE*0.7730;
          power_fraction 0.000000;
          impedance_fraction 1.000000;
          current_fraction 0.000000;
          power_pf 0.000;
          current_pf 0.000;
          impedance_pf 1.000;
          heat_fraction 0.79;
     };
     object ZIPload {
          schedule_skew 35;
          base_power MICROWAVE*0.3543;
          power_fraction 1.000000;
          impedance_fraction 0.000000;
          current_fraction 0.000000;
          power_pf 0.970;
          current_pf 0.970;
          impedance_pf 0.970;
          heat_fraction 0.80;
     };
}







 object overhead_line:  {
     phases "ABCN";
     name l1-7;
     from meter_1;
     to meter_7;
     length 300;
     configuration line_configuration:1001;
}
 //---------------------------------------------------NODE 7 with House load 
object meter {
     name meter_7;
     phases "ABCN";
     voltage_A 2401.7771;
     voltage_B -1200.8886-2080.000j;
     voltage_C -1200.8886+2080.000j;
//   constant_power_A 20000+10000j;
     nominal_voltage 2401.7771;
}

object transformer {
     name house_7_trans;
     phases AS;
     from meter_7;
     to house_7_node;
     configuration house_transformer;
}
object triplex_node {     
     name house_7_node;
     phases AS;
     nominal_voltage 124.00;     
} 
object triplex_line {
	 name tl7;
     from house_7_node;
     to house_7_meter;
     phases AS;
     length 10;
     configuration triplex_line_config;
}
object triplex_meter {     
     name house_7_meter;
     phases AS;
     nominal_voltage 124.00;     
} 
object house {
     name house_7;
     parent house_7_meter;
	 Rroof 40;
	 window_wall_ratio 0.5;
	 over_sizing_factor 1.3;
	 cooling_setpoint 73;
	 thermostat_deadband 2.5;
	 air_temperature 72;
	 object ZIPload {
          schedule_skew 35;
          base_power LIGHTS*1.9408;
          power_fraction 0.600000;
          impedance_fraction 0.400000;
          current_fraction 0.000000;
          power_pf -0.780;
          current_pf 0.420;
          impedance_pf -0.880;
          heat_fraction 0.88;
     };
     object ZIPload {
          schedule_skew 35;
          base_power CLOTHESWASHER*0.8239;
          power_fraction 1.000000;
          impedance_fraction 0.000000;
          current_fraction 0.000000;
          power_pf 0.970;
          current_pf 0.970;
          impedance_pf 0.970;
          heat_fraction 0.81;
     };
     object ZIPload {
          schedule_skew 35;
          base_power REFRIGERATOR*0.4240;
          power_fraction 1.000000;
          impedance_fraction 0.000000;
          current_fraction 0.000000;
          power_pf 0.970;
          current_pf 0.970;
          impedance_pf 0.970;
          heat_fraction 0.93;
     };
     object ZIPload {
          schedule_skew 35;
          base_power DRYER*0.8937;
          power_fraction 0.100000;
          impedance_fraction 0.800000;
          current_fraction 0.100000;
          power_pf 0.900;
          current_pf 0.900;
          impedance_pf 1.000;
          heat_fraction 0.93;
     };
     object ZIPload {
          schedule_skew 35;
          base_power FREEZER*0.3775;
          power_fraction 1.000000;
          impedance_fraction 0.000000;
          current_fraction 0.000000;
          power_pf 0.970;
          current_pf 0.970;
          impedance_pf 0.970;
          heat_fraction 0.65;
     };
     object ZIPload {
          schedule_skew 35;
          base_power RANGE*0.7730;
          power_fraction 0.000000;
          impedance_fraction 1.000000;
          current_fraction 0.000000;
          power_pf 0.000;
          current_pf 0.000;
          impedance_pf 1.000;
          heat_fraction 0.79;
     };
     object ZIPload {
          schedule_skew 35;
          base_power MICROWAVE*0.3543;
          power_fraction 1.000000;
          impedance_fraction 0.000000;
          current_fraction 0.000000;
          power_pf 0.970;
          current_pf 0.970;
          impedance_pf 0.970;
          heat_fraction 0.80;
     };
}



object overhead_line:  {
     phases "ABCN";
     name l7-8;
     from meter_7;
     to meter_8;
     length 200;
     configuration line_configuration:1001;
}
   //---------------------------------------------------------------NODE 8
 object meter {
     phases "ABCN";
     name meter_8;
     voltage_A 2401.7771;
     voltage_B -1200.8886-2080.000j;
     voltage_C -1200.8886+2080.000j;
     nominal_voltage 2401.7771;
}
 
object overhead_line:  {
     phases "BN";
     name l8-12;
     from meter_8;
     to meter_12;
     length 225;
     configuration line_configuration:10010;
}
  //-----------------------------------------------------NODE 12 with House load *To be added*
 object meter {
     name meter_12;
     phases "BN";
     voltage_A 2401.7771;
     voltage_B -1200.8886-2080.000j;
     voltage_C -1200.8886+2080.000j;
//   constant_power_B 20000+10000j;
     nominal_voltage 2401.7771;
}

object transformer {
     name house_12_trans;
     phases BS;
     from meter_12;
     to house_12_node;
     configuration houseB_transformer;
}
object triplex_node {     
     name house_12_node;
     phases BS;
     nominal_voltage 124.00;     
} 
object triplex_line {
	 name tl12;
     from house_12_node;
     to house_12_meter;
     phases BS;
     length 10;
     configuration triplex_line_config;
}
object triplex_meter {     
     name house_12_meter;
     phases BS;
     nominal_voltage 124.00;     
} 
object house {
     name house_12;
     parent house_12_meter;
	 Rroof 40;
	 window_wall_ratio 0.5;
	 over_sizing_factor 1.3;
	 cooling_setpoint 73;
	 thermostat_deadband 2.5;
	 air_temperature 72;
	 object ZIPload {
          schedule_skew 35;
          base_power LIGHTS*1.9408;
          power_fraction 0.600000;
          impedance_fraction 0.400000;
          current_fraction 0.000000;
          power_pf -0.780;
          current_pf 0.420;
          impedance_pf -0.880;
          heat_fraction 0.88;
     };
     object ZIPload {
          schedule_skew 35;
          base_power CLOTHESWASHER*0.8239;
          power_fraction 1.000000;
          impedance_fraction 0.000000;
          current_fraction 0.000000;
          power_pf 0.970;
          current_pf 0.970;
          impedance_pf 0.970;
          heat_fraction 0.81;
     };
     object ZIPload {
          schedule_skew 35;
          base_power REFRIGERATOR*0.4240;
          power_fraction 1.000000;
          impedance_fraction 0.000000;
          current_fraction 0.000000;
          power_pf 0.970;
          current_pf 0.970;
          impedance_pf 0.970;
          heat_fraction 0.93;
     };
     object ZIPload {
          schedule_skew 35;
          base_power DRYER*0.8937;
          power_fraction 0.100000;
          impedance_fraction 0.800000;
          current_fraction 0.100000;
          power_pf 0.900;
          current_pf 0.900;
          impedance_pf 1.000;
          heat_fraction 0.93;
     };
     object ZIPload {
          schedule_skew 35;
          base_power FREEZER*0.3775;
          power_fraction 1.000000;
          impedance_fraction 0.000000;
          current_fraction 0.000000;
          power_pf 0.970;
          current_pf 0.970;
          impedance_pf 0.970;
          heat_fraction 0.65;
     };
     object ZIPload {
          schedule_skew 35;
          base_power RANGE*0.7730;
          power_fraction 0.000000;
          impedance_fraction 1.000000;
          current_fraction 0.000000;
          power_pf 0.000;
          current_pf 0.000;
          impedance_pf 1.000;
          heat_fraction 0.79;
     };
     object ZIPload {
          schedule_skew 35;
          base_power MICROWAVE*0.3543;
          power_fraction 1.000000;
          impedance_fraction 0.000000;
          current_fraction 0.000000;
          power_pf 0.970;
          current_pf 0.970;
          impedance_pf 0.970;
          heat_fraction 0.80;
     };
}





object overhead_line:  {
     phases "AN";
     name l8-9;
     from meter_8;
     to meter_9;
     length 225;
     configuration line_configuration:1009;
}
   //-----------------------------------------------------NODE 9 with House load *To be added*
 object meter {
     name meter_9;
     phases "AN";
     voltage_A 2401.7771;
     voltage_B -1200.8886-2080.000j;
     voltage_C -1200.8886+2080.000j;
//   constant_power_A 40000+20000j;
     nominal_voltage 2401.7771;
}

object transformer {
     name house_9_trans;
     phases AS;
     from meter_9;
     to house_9_node;
     configuration house_transformer;
}
object triplex_node {     
     name house_9_node;
     phases AS;
     nominal_voltage 124.00;     
} 
object triplex_line {
	 name tl9;
     from house_9_node;
     to house_9_meter;
     phases AS;
     length 10;
     configuration triplex_line_config;
}
object triplex_meter {     
     name house_9_meter;
     phases AS;
     nominal_voltage 124.00;     
} 
object house {
     name house_9;
     parent house_9_meter;
	 Rroof 40;
	 window_wall_ratio 0.5;
	 over_sizing_factor 1.3;
	 cooling_setpoint 73;
	 thermostat_deadband 2.5;
	 air_temperature 72;
	 object ZIPload {
          schedule_skew 35;
          base_power LIGHTS*1.9408;
          power_fraction 0.600000;
          impedance_fraction 0.400000;
          current_fraction 0.000000;
          power_pf -0.780;
          current_pf 0.420;
          impedance_pf -0.880;
          heat_fraction 0.88;
     };
     object ZIPload {
          schedule_skew 35;
          base_power CLOTHESWASHER*0.8239;
          power_fraction 1.000000;
          impedance_fraction 0.000000;
          current_fraction 0.000000;
          power_pf 0.970;
          current_pf 0.970;
          impedance_pf 0.970;
          heat_fraction 0.81;
     };
     object ZIPload {
          schedule_skew 35;
          base_power REFRIGERATOR*0.4240;
          power_fraction 1.000000;
          impedance_fraction 0.000000;
          current_fraction 0.000000;
          power_pf 0.970;
          current_pf 0.970;
          impedance_pf 0.970;
          heat_fraction 0.93;
     };
     object ZIPload {
          schedule_skew 35;
          base_power DRYER*0.8937;
          power_fraction 0.100000;
          impedance_fraction 0.800000;
          current_fraction 0.100000;
          power_pf 0.900;
          current_pf 0.900;
          impedance_pf 1.000;
          heat_fraction 0.93;
     };
     object ZIPload {
          schedule_skew 35;
          base_power FREEZER*0.3775;
          power_fraction 1.000000;
          impedance_fraction 0.000000;
          current_fraction 0.000000;
          power_pf 0.970;
          current_pf 0.970;
          impedance_pf 0.970;
          heat_fraction 0.65;
     };
     object ZIPload {
          schedule_skew 35;
          base_power RANGE*0.7730;
          power_fraction 0.000000;
          impedance_fraction 1.000000;
          current_fraction 0.000000;
          power_pf 0.000;
          current_pf 0.000;
          impedance_pf 1.000;
          heat_fraction 0.79;
     };
     object ZIPload {
          schedule_skew 35;
          base_power MICROWAVE*0.3543;
          power_fraction 1.000000;
          impedance_fraction 0.000000;
          current_fraction 0.000000;
          power_pf 0.970;
          current_pf 0.970;
          impedance_pf 0.970;
          heat_fraction 0.80;
     };
}




//---------------------------------------------------------Regulator 9-14
object regulator {
	 phases "A";
	 from meter_9;
	 to meter_1401;
	 configuration regulator_configuration:914010;
}object meter {
     phases "AN";
     name meter_1401;
     voltage_A 2401.7771;
     voltage_B -1200.8886-2080.000j;
     voltage_C -1200.8886+2080.000j;
     nominal_voltage 2401.7771;
}
 
object overhead_line:  {
     phases "AN";
     name l1401-14;
     from meter_1401;
     to meter_14;
     length 425;
     configuration line_configuration:1009;
}
//------------------------------------------------------------------Node 14
object meter {
     phases "AN";
     name meter_14;
     voltage_A 2401.7771;
     voltage_B -1200.8886-2080.000j;
     voltage_C -1200.8886+2080.000j;
     nominal_voltage 2401.7771;
}
object overhead_line:  {
     phases "AN";
     name l14-10;
     from meter_14;
     to meter_10;
     length 250;
     configuration line_configuration:1009;
}
   //---------------------------------------------------NODE 10 with House load 
 object meter {
     name meter_10;
     phases "AN";
     voltage_A 2401.7771;
     voltage_B -1200.8886-2080.000j;
     voltage_C -1200.8886+2080.000j;
//   constant_current_A 8.3272-4.1636j;
     nominal_voltage 2401.7771;
}

object transformer {
     name house_10_trans;
     phases AS;
     from meter_10;
     to house_10_node;
     configuration house_transformer;
}
object triplex_node {     
     name house_10_node;
     phases AS;
     nominal_voltage 124.00;     
} 
object triplex_line {
	 name tl10;
     from house_10_node;
     to house_10_meter;
     phases AS;
     length 10;
     configuration triplex_line_config;
}
object triplex_meter {     
     name house_10_meter;
     phases AS;
     nominal_voltage 124.00;     
} 
object house {
     name house_10;
     parent house_10_meter;
	 Rroof 40;
	 window_wall_ratio 0.5;
	 over_sizing_factor 1.3;
	 cooling_setpoint 73;
	 thermostat_deadband 2.5;
	 air_temperature 72;
	 object ZIPload {
          schedule_skew 35;
          base_power LIGHTS*1.9408;
          power_fraction 0.600000;
          impedance_fraction 0.400000;
          current_fraction 0.000000;
          power_pf -0.780;
          current_pf 0.420;
          impedance_pf -0.880;
          heat_fraction 0.88;
     };
     object ZIPload {
          schedule_skew 35;
          base_power CLOTHESWASHER*0.8239;
          power_fraction 1.000000;
          impedance_fraction 0.000000;
          current_fraction 0.000000;
          power_pf 0.970;
          current_pf 0.970;
          impedance_pf 0.970;
          heat_fraction 0.81;
     };
     object ZIPload {
          schedule_skew 35;
          base_power REFRIGERATOR*0.4240;
          power_fraction 1.000000;
          impedance_fraction 0.000000;
          current_fraction 0.000000;
          power_pf 0.970;
          current_pf 0.970;
          impedance_pf 0.970;
          heat_fraction 0.93;
     };
     object ZIPload {
          schedule_skew 35;
          base_power DRYER*0.8937;
          power_fraction 0.100000;
          impedance_fraction 0.800000;
          current_fraction 0.100000;
          power_pf 0.900;
          current_pf 0.900;
          impedance_pf 1.000;
          heat_fraction 0.93;
     };
     object ZIPload {
          schedule_skew 35;
          base_power FREEZER*0.3775;
          power_fraction 1.000000;
          impedance_fraction 0.000000;
          current_fraction 0.000000;
          power_pf 0.970;
          current_pf 0.970;
          impedance_pf 0.970;
          heat_fraction 0.65;
     };
     object ZIPload {
          schedule_skew 35;
          base_power RANGE*0.7730;
          power_fraction 0.000000;
          impedance_fraction 1.000000;
          current_fraction 0.000000;
          power_pf 0.000;
          current_pf 0.000;
          impedance_pf 1.000;
          heat_fraction 0.79;
     };
     object ZIPload {
          schedule_skew 35;
          base_power MICROWAVE*0.3543;
          power_fraction 1.000000;
          impedance_fraction 0.000000;
          current_fraction 0.000000;
          power_pf 0.970;
          current_pf 0.970;
          impedance_pf 0.970;
          heat_fraction 0.80;
     };
}




object overhead_line:  {
     phases "AN";
     name l14-11;
     from meter_14;
     to meter_11;
     length 250;
     configuration line_configuration:1009;
}
   //---------------------------------------------------NODE 11 with House load
object meter {
     name meter_11;
     phases "AN";
     voltage_A 2401.7771;
     voltage_B -1200.8886-2080.000j;
     voltage_C -1200.8886+2080.000j;
//   constant_impedance_A 115.3707+57.6853j;
     nominal_voltage 2401.7771;
}

object transformer {
     name house_11_trans;
     phases AS;
     from meter_11;
     to house_11_node;
     configuration house_transformer;
}
object triplex_node {     
     name house_11_node;
     phases AS;
     nominal_voltage 124.00;     
} 
object triplex_line {
	 name tl11;
     from house_11_node;
     to house_11_meter;
     phases AS;
     length 10;
     configuration triplex_line_config;
}
object triplex_meter {     
     name house_11_meter;
     phases AS;
     nominal_voltage 124.00;     
} 
object house {
     name house_11;
     parent house_11_meter;
	 Rroof 40;
	 window_wall_ratio 0.5;
	 over_sizing_factor 1.3;
	 cooling_setpoint 73;
	 thermostat_deadband 2.5;
	 air_temperature 72;
	 object ZIPload {
          schedule_skew 35;
          base_power LIGHTS*1.9408;
          power_fraction 0.600000;
          impedance_fraction 0.400000;
          current_fraction 0.000000;
          power_pf -0.780;
          current_pf 0.420;
          impedance_pf -0.880;
          heat_fraction 0.88;
     };
     object ZIPload {
          schedule_skew 35;
          base_power CLOTHESWASHER*0.8239;
          power_fraction 1.000000;
          impedance_fraction 0.000000;
          current_fraction 0.000000;
          power_pf 0.970;
          current_pf 0.970;
          impedance_pf 0.970;
          heat_fraction 0.81;
     };
     object ZIPload {
          schedule_skew 35;
          base_power REFRIGERATOR*0.4240;
          power_fraction 1.000000;
          impedance_fraction 0.000000;
          current_fraction 0.000000;
          power_pf 0.970;
          current_pf 0.970;
          impedance_pf 0.970;
          heat_fraction 0.93;
     };
     object ZIPload {
          schedule_skew 35;
          base_power DRYER*0.8937;
          power_fraction 0.100000;
          impedance_fraction 0.800000;
          current_fraction 0.100000;
          power_pf 0.900;
          current_pf 0.900;
          impedance_pf 1.000;
          heat_fraction 0.93;
     };
     object ZIPload {
          schedule_skew 35;
          base_power FREEZER*0.3775;
          power_fraction 1.000000;
          impedance_fraction 0.000000;
          current_fraction 0.000000;
          power_pf 0.970;
          current_pf 0.970;
          impedance_pf 0.970;
          heat_fraction 0.65;
     };
     object ZIPload {
          schedule_skew 35;
          base_power RANGE*0.7730;
          power_fraction 0.000000;
          impedance_fraction 1.000000;
          current_fraction 0.000000;
          power_pf 0.000;
          current_pf 0.000;
          impedance_pf 1.000;
          heat_fraction 0.79;
     };
     object ZIPload {
          schedule_skew 35;
          base_power MICROWAVE*0.3543;
          power_fraction 1.000000;
          impedance_fraction 0.000000;
          current_fraction 0.000000;
          power_pf 0.970;
          current_pf 0.970;
          impedance_pf 0.970;
          heat_fraction 0.80;
     };
}




 

 object overhead_line:  {
     phases "ABCN";
     name l8-13;
     from meter_8;
     to meter_13;
     length 300;
     configuration line_configuration:1001;
}
 //---------------------------------------------------------------NODE 13
 object meter {
     phases "ABCN";
     name meter_13;
     voltage_A 2401.7771;
     voltage_B -1200.8886-2080.000j;
     voltage_C -1200.8886+2080.000j;
     nominal_voltage 2401.7771;
}

object overhead_line:  {
     phases "CN";
     name l13-34;
     from meter_13;
     to meter_34;
     length 150;
     configuration line_configuration:10011;
}
   //---------------------------------------------------NODE 34 with House load 
 object meter {
     name meter_34;
     phases "CN";
     voltage_A 2401.7771;
     voltage_B -1200.8886-2080.000j;
     voltage_C -1200.8886+2080.000j;
//   constant_impedance_C 115.3707+57.6853j;
     nominal_voltage 2401.7771;
}

object transformer {
     name house_34_trans;
     phases CS;
     from meter_34;
     to house_34_node;
     configuration houseC_transformer;
}
object triplex_node {     
     name house_34_node;
     phases CS;
     nominal_voltage 124.00;     
} 
object triplex_line {
	 name tl34;
     from house_34_node;
     to house_34_meter;
     phases CS;
     length 10;
     configuration triplex_line_config;
}
object triplex_meter {     
     name house_34_meter;
     phases CS;
     nominal_voltage 124.00;     
} 
object house {
     name house_34;
     parent house_34_meter;
	 Rroof 40;
	 window_wall_ratio 0.5;
	 over_sizing_factor 1.3;
	 cooling_setpoint 73;
	 thermostat_deadband 2.5;
	 air_temperature 72;
	 object ZIPload {
          schedule_skew 35;
          base_power LIGHTS*1.9408;
          power_fraction 0.600000;
          impedance_fraction 0.400000;
          current_fraction 0.000000;
          power_pf -0.780;
          current_pf 0.420;
          impedance_pf -0.880;
          heat_fraction 0.88;
     };
     object ZIPload {
          schedule_skew 35;
          base_power CLOTHESWASHER*0.8239;
          power_fraction 1.000000;
          impedance_fraction 0.000000;
          current_fraction 0.000000;
          power_pf 0.970;
          current_pf 0.970;
          impedance_pf 0.970;
          heat_fraction 0.81;
     };
     object ZIPload {
          schedule_skew 35;
          base_power REFRIGERATOR*0.4240;
          power_fraction 1.000000;
          impedance_fraction 0.000000;
          current_fraction 0.000000;
          power_pf 0.970;
          current_pf 0.970;
          impedance_pf 0.970;
          heat_fraction 0.93;
     };
     object ZIPload {
          schedule_skew 35;
          base_power DRYER*0.8937;
          power_fraction 0.100000;
          impedance_fraction 0.800000;
          current_fraction 0.100000;
          power_pf 0.900;
          current_pf 0.900;
          impedance_pf 1.000;
          heat_fraction 0.93;
     };
     object ZIPload {
          schedule_skew 35;
          base_power FREEZER*0.3775;
          power_fraction 1.000000;
          impedance_fraction 0.000000;
          current_fraction 0.000000;
          power_pf 0.970;
          current_pf 0.970;
          impedance_pf 0.970;
          heat_fraction 0.65;
     };
     object ZIPload {
          schedule_skew 35;
          base_power RANGE*0.7730;
          power_fraction 0.000000;
          impedance_fraction 1.000000;
          current_fraction 0.000000;
          power_pf 0.000;
          current_pf 0.000;
          impedance_pf 1.000;
          heat_fraction 0.79;
     };
     object ZIPload {
          schedule_skew 35;
          base_power MICROWAVE*0.3543;
          power_fraction 1.000000;
          impedance_fraction 0.000000;
          current_fraction 0.000000;
          power_pf 0.970;
          current_pf 0.970;
          impedance_pf 0.970;
          heat_fraction 0.80;
     };
}




object overhead_line:  {
     phases "CN";
     name l34-15;
     from meter_34;
     to meter_15;
     length 100;
     configuration line_configuration:10011;
}
   //---------------------------------------------------------------NODE 15
   object meter {
     phases "CN";
     name meter_15;
     voltage_A 2401.7771;
     voltage_B -1200.8886-2080.000j;
     voltage_C -1200.8886+2080.000j;
     nominal_voltage 2401.7771;
}
object overhead_line:  {
     phases "CN";
     name l15-16;
     from meter_15;
     to meter_16;
     length 375;
     configuration line_configuration:10011;
}
   //---------------------------------------------------NODE 16 with House load
 object meter {
     name meter_16;
     phases "CN";
     voltage_A 2401.7771;
     voltage_B -1200.8886-2080.000j;
     voltage_C -1200.8886+2080.000j;
//   constant_power_C 40000+20000j;
     nominal_voltage 2401.7771;
}

object transformer {
     name house_16_trans;
     phases CS;
     from meter_16;
     to house_16_node;
     configuration houseC_transformer;
}
object triplex_node {     
     name house_16_node;
     phases CS;
     nominal_voltage 124.00;     
} 
object triplex_line {
	 name tl16;
     from house_16_node;
     to house_16_meter;
     phases CS;
     length 10;
     configuration triplex_line_config;
}
object triplex_meter {     
     name house_16_meter;
     phases CS;
     nominal_voltage 124.00;     
} 
object house {
     name house_16;
     parent house_16_meter;
	 Rroof 40;
	 window_wall_ratio 0.5;
	 over_sizing_factor 1.3;
	 cooling_setpoint 73;
	 thermostat_deadband 2.5;
	 air_temperature 72;
	 object ZIPload {
          schedule_skew 35;
          base_power LIGHTS*1.9408;
          power_fraction 0.600000;
          impedance_fraction 0.400000;
          current_fraction 0.000000;
          power_pf -0.780;
          current_pf 0.420;
          impedance_pf -0.880;
          heat_fraction 0.88;
     };
     object ZIPload {
          schedule_skew 35;
          base_power CLOTHESWASHER*0.8239;
          power_fraction 1.000000;
          impedance_fraction 0.000000;
          current_fraction 0.000000;
          power_pf 0.970;
          current_pf 0.970;
          impedance_pf 0.970;
          heat_fraction 0.81;
     };
     object ZIPload {
          schedule_skew 35;
          base_power REFRIGERATOR*0.4240;
          power_fraction 1.000000;
          impedance_fraction 0.000000;
          current_fraction 0.000000;
          power_pf 0.970;
          current_pf 0.970;
          impedance_pf 0.970;
          heat_fraction 0.93;
     };
     object ZIPload {
          schedule_skew 35;
          base_power DRYER*0.8937;
          power_fraction 0.100000;
          impedance_fraction 0.800000;
          current_fraction 0.100000;
          power_pf 0.900;
          current_pf 0.900;
          impedance_pf 1.000;
          heat_fraction 0.93;
     };
     object ZIPload {
          schedule_skew 35;
          base_power FREEZER*0.3775;
          power_fraction 1.000000;
          impedance_fraction 0.000000;
          current_fraction 0.000000;
          power_pf 0.970;
          current_pf 0.970;
          impedance_pf 0.970;
          heat_fraction 0.65;
     };
     object ZIPload {
          schedule_skew 35;
          base_power RANGE*0.7730;
          power_fraction 0.000000;
          impedance_fraction 1.000000;
          current_fraction 0.000000;
          power_pf 0.000;
          current_pf 0.000;
          impedance_pf 1.000;
          heat_fraction 0.79;
     };
     object ZIPload {
          schedule_skew 35;
          base_power MICROWAVE*0.3543;
          power_fraction 1.000000;
          impedance_fraction 0.000000;
          current_fraction 0.000000;
          power_pf 0.970;
          current_pf 0.970;
          impedance_pf 0.970;
          heat_fraction 0.80;
     };
}





object overhead_line:  {
     phases "CN";
     name l15-17;
     from meter_15;
     to meter_17;
     length 350;
     configuration line_configuration:10011;
}
   //----------------------------------------------------NODE 17 with House load 
 object meter {
     name meter_17;
     phases "CN";
     voltage_A 2401.7771;
     voltage_B -1200.8886-2080.000j;
     voltage_C -1200.8886+2080.000j;
//   constant_power_C 20000+10000j;
     nominal_voltage 2401.7771;
}

object transformer {
     name house_17_trans;
     phases CS;
     from meter_17;
     to house_17_node;
     configuration houseC_transformer;
}
object triplex_node {     
     name house_17_node;
     phases CS;
     nominal_voltage 124.00;     
} 
object triplex_line {
	 name tl17;
     from house_17_node;
     to house_17_meter;
     phases CS;
     length 10;
     configuration triplex_line_config;
}
object triplex_meter {     
     name house_17_meter;
     phases CS;
     nominal_voltage 124.00;     
} 
object house {
     name house_17;
     parent house_17_meter;
	 Rroof 40;
	 window_wall_ratio 0.5;
	 over_sizing_factor 1.3;
	 cooling_setpoint 73;
	 thermostat_deadband 2.5;
	 air_temperature 72;
	 object ZIPload {
          schedule_skew 35;
          base_power LIGHTS*1.9408;
          power_fraction 0.600000;
          impedance_fraction 0.400000;
          current_fraction 0.000000;
          power_pf -0.780;
          current_pf 0.420;
          impedance_pf -0.880;
          heat_fraction 0.88;
     };
     object ZIPload {
          schedule_skew 35;
          base_power CLOTHESWASHER*0.8239;
          power_fraction 1.000000;
          impedance_fraction 0.000000;
          current_fraction 0.000000;
          power_pf 0.970;
          current_pf 0.970;
          impedance_pf 0.970;
          heat_fraction 0.81;
     };
     object ZIPload {
          schedule_skew 35;
          base_power REFRIGERATOR*0.4240;
          power_fraction 1.000000;
          impedance_fraction 0.000000;
          current_fraction 0.000000;
          power_pf 0.970;
          current_pf 0.970;
          impedance_pf 0.970;
          heat_fraction 0.93;
     };
     object ZIPload {
          schedule_skew 35;
          base_power DRYER*0.8937;
          power_fraction 0.100000;
          impedance_fraction 0.800000;
          current_fraction 0.100000;
          power_pf 0.900;
          current_pf 0.900;
          impedance_pf 1.000;
          heat_fraction 0.93;
     };
     object ZIPload {
          schedule_skew 35;
          base_power FREEZER*0.3775;
          power_fraction 1.000000;
          impedance_fraction 0.000000;
          current_fraction 0.000000;
          power_pf 0.970;
          current_pf 0.970;
          impedance_pf 0.970;
          heat_fraction 0.65;
     };
     object ZIPload {
          schedule_skew 35;
          base_power RANGE*0.7730;
          power_fraction 0.000000;
          impedance_fraction 1.000000;
          current_fraction 0.000000;
          power_pf 0.000;
          current_pf 0.000;
          impedance_pf 1.000;
          heat_fraction 0.79;
     };
     object ZIPload {
          schedule_skew 35;
          base_power MICROWAVE*0.3543;
          power_fraction 1.000000;
          impedance_fraction 0.000000;
          current_fraction 0.000000;
          power_pf 0.970;
          current_pf 0.970;
          impedance_pf 0.970;
          heat_fraction 0.80;
     };
}


//---------- Switch 13-152 connecting left side and middle side of the network
object switch {
     phases "ABCN";
     name s13-152;
     from meter_13;
     to meter_152;
     status CLOSED;
}
 //---------------------------------------------------NODE 152 in the middle side
object meter {
     phases "ABCN";
     name meter_152;
     voltage_A 2401.7771;
     voltage_B -1200.8886-2080.000j;
     voltage_C -1200.8886+2080.000j;
     nominal_voltage 2401.7771;
}object overhead_line:  {
     phases "ABCN";
     name l152-52;
     from meter_152;
     to meter_52;
     length 400;
     configuration line_configuration:1001;
}
//----------------------------------------------------NODE 52 with House load 
object meter {
     name meter_52;
     phases "ABCN";
     voltage_A 2401.7771;
     voltage_B -1200.8886-2080.000j;
     voltage_C -1200.8886+2080.000j;
//   constant_power_A 40000+20000j;
     nominal_voltage 2401.7771;
}

object transformer {
     name house_52_trans;
     phases AS;
     from meter_52;
     to house_52_node;
     configuration house_transformer;
}
object triplex_node {     
     name house_52_node;
     phases AS;
     nominal_voltage 124.00;     
} 
object triplex_line {
	 name tl52;
     from house_52_node;
     to house_52_meter;
     phases AS;
     length 10;
     configuration triplex_line_config;
}
object triplex_meter {     
     name house_52_meter;
     phases AS;
     nominal_voltage 124.00;     
} 
object house {
     name house_52;
     parent house_52_meter;
	 Rroof 40;
	 window_wall_ratio 0.5;
	 over_sizing_factor 1.3;
	 cooling_setpoint 73;
	 thermostat_deadband 2.5;
	 air_temperature 72;
	 object ZIPload {
          schedule_skew 35;
          base_power LIGHTS*1.9408;
          power_fraction 0.600000;
          impedance_fraction 0.400000;
          current_fraction 0.000000;
          power_pf -0.780;
          current_pf 0.420;
          impedance_pf -0.880;
          heat_fraction 0.88;
     };
     object ZIPload {
          schedule_skew 35;
          base_power CLOTHESWASHER*0.8239;
          power_fraction 1.000000;
          impedance_fraction 0.000000;
          current_fraction 0.000000;
...